
**** 03/08/18 12:52:19 ******* PSpice Lite (March 2016) ******* ID# 10813 ****

 ** Profile: "SCHEMATIC1-circuit1"  [ Z:\circuit1-PSpiceFiles\SCHEMATIC1\circuit1.sim ] 


 ****     CIRCUIT DESCRIPTION


******************************************************************************




** Creating circuit file "circuit1.cir" 
** WARNING: THIS AUTOMATICALLY GENERATED FILE MAY BE OVERWRITTEN BY SUBSEQUENT SIMULATIONS

*Libraries: 
* Profile Libraries :
* Local Libraries :
* From [PSPICE NETLIST] section of Z:\cdssetup\OrCAD_PSpice\17.2.0\PSpice.ini file:
.lib "nomd.lib" 

*Analysis directives: 
.TRAN  0 60us 0 0.01us 
.STEP LIN PARAM R3 1000 3000 2000 
.OPTIONS ADVCONV
.PROBE64 V(alias(*)) I(alias(*)) W(alias(*)) D(alias(*)) NOISE(alias(*)) 
.INC "..\SCHEMATIC1.net" 



**** INCLUDING SCHEMATIC1.net ****
* source CIRCUIT1
V_V1         N00193 0  
+PULSE 5V 0V 0 0 0 25us 50us
R_R1         N00193 N00200  2k TC=0,0 
R_R2         0 N00200  2k TC=0,0 
R_R3         N00224 N00200  .3 TC=0,0 
L_L1         0 N00224  10mH  

**** RESUMING circuit1.cir ****
.END

ERROR(ORPSIM-15167): Undefined parameter: R3.
