
**** 05/16/18 14:21:29 ******* PSpice Lite (March 2016) ******* ID# 10813 ****

 ** Profile: "SCHEMATIC1-lab3"  [ Z:\lab 3-PSpiceFiles\SCHEMATIC1\lab3.sim ] 


 ****     CIRCUIT DESCRIPTION


******************************************************************************




** Creating circuit file "lab3.cir" 
** WARNING: THIS AUTOMATICALLY GENERATED FILE MAY BE OVERWRITTEN BY SUBSEQUENT SIMULATIONS

*Libraries: 
* Profile Libraries :
* Local Libraries :
* From [PSPICE NETLIST] section of Z:\cdssetup\OrCAD_PSpice\17.2.0\PSpice.ini file:
.lib "nomd.lib" 

*Analysis directives: 
.TRAN  0 10ms 0 10ns SKIPBP 
.OPTIONS ADVCONV
.PROBE64 V(alias(*)) I(alias(*)) W(alias(*)) D(alias(*)) NOISE(alias(*)) 
.INC "..\SCHEMATIC1.net" 



**** INCLUDING SCHEMATIC1.net ****
* source LAB 3
V_V1         N00131 0 10Vdc
C_C1         N00806 0  2.2uF IC=0 TC=0,0 
L_L1         0 N00806  5mH IC=0 
R_R1         N00131 N00806  1k TC=0,0 

**** RESUMING lab3.cir ****
.END


          JOB CONCLUDED

**** 05/16/18 14:21:29 ******* PSpice Lite (March 2016) ******* ID# 10813 ****

 ** Profile: "SCHEMATIC1-lab3"  [ Z:\lab 3-PSpiceFiles\SCHEMATIC1\lab3.sim ] 


 ****     JOB STATISTICS SUMMARY


******************************************************************************



  Total job time (using Solver 1)   =        3.44
