
**** 05/23/18 14:36:35 ******* PSpice Lite (March 2016) ******* ID# 10813 ****

 ** Profile: "SCHEMATIC1-lab4b"  [ Z:\lab 4b-PSpiceFiles\SCHEMATIC1\lab4b.sim ] 


 ****     CIRCUIT DESCRIPTION


******************************************************************************




** Creating circuit file "lab4b.cir" 
** WARNING: THIS AUTOMATICALLY GENERATED FILE MAY BE OVERWRITTEN BY SUBSEQUENT SIMULATIONS

*Libraries: 
* Profile Libraries :
* Local Libraries :
* From [PSPICE NETLIST] section of Z:\cdssetup\OrCAD_PSpice\17.2.0\PSpice.ini file:
.lib "nomd.lib" 

*Analysis directives: 
.AC DEC 10 10000 100000
.OPTIONS ADVCONV
.PROBE64 V(alias(*)) I(alias(*)) W(alias(*)) D(alias(*)) NOISE(alias(*)) 
.INC "..\SCHEMATIC1.net" 



**** INCLUDING SCHEMATIC1.net ****
* source LAB 4B
R_R1         N00215 N01332  10k TC=0,0 
X_U1         N00441 N01332 N00294 N00287 N00247 uA741
V_V2         N00294 0 15Vdc
V_V3         0 N00287 15Vdc
R_R3         N00247 N01332  100k TC=0,0 
V_V4         N00215 0 DC 0.1Vdc AC 1Vac 
X_U2         0 N09683 N00294 N00287 N09733 uA741
R_R4         N00247 N09683  10k TC=0,0 
R_R5         N09733 N09683  100k TC=0,0 
R_R6         0 N09733  10k TC=0,0 

**** RESUMING lab4b.cir ****
.END

ERROR(ORPSIM-15141): Less than 2 connections at node N00441.
