
**** 06/01/18 13:15:54 ******* PSpice Lite (March 2016) ******* ID# 10813 ****

 ** Profile: "SCHEMATIC1-lab7"  [ Z:\lab7-PSpiceFiles\SCHEMATIC1\lab7.sim ] 


 ****     CIRCUIT DESCRIPTION


******************************************************************************




** Creating circuit file "lab7.cir" 
** WARNING: THIS AUTOMATICALLY GENERATED FILE MAY BE OVERWRITTEN BY SUBSEQUENT SIMULATIONS

*Libraries: 
* Profile Libraries :
* Local Libraries :
* From [PSPICE NETLIST] section of Z:\cdssetup\OrCAD_PSpice\17.2.0\PSpice.ini file:
.lib "nomd.lib" 

*Analysis directives: 
.AC DEC 10 0.01 1000000
.OPTIONS ADVCONV
.PROBE64 V(alias(*)) I(alias(*)) W(alias(*)) D(alias(*)) NOISE(alias(*)) 
.INC "..\SCHEMATIC1.net" 



**** INCLUDING SCHEMATIC1.net ****
* source LAB7
V_V1         N00150 0 DC 0Vdc AC 1Vac 
R_R1         N00150 N00157  50 TC=0,0 
R_R2         N00157 N00161  20 TC=0,0 
L_L1         N00161 N00165  10mH  
C_C1         0 N00165  2.533uF  TC=0,0 

**** RESUMING lab7.cir ****
.END

**** 06/01/18 13:15:54 ******* PSpice Lite (March 2016) ******* ID# 10813 ****

 ** Profile: "SCHEMATIC1-lab7"  [ Z:\lab7-PSpiceFiles\SCHEMATIC1\lab7.sim ] 


 ****     SMALL SIGNAL BIAS SOLUTION       TEMPERATURE =   27.000 DEG C


******************************************************************************



 NODE   VOLTAGE     NODE   VOLTAGE     NODE   VOLTAGE     NODE   VOLTAGE


(N00150)    0.0000 (N00157)    0.0000 (N00161)    0.0000 (N00165)    0.0000 




    VOLTAGE SOURCE CURRENTS
    NAME         CURRENT

    V_V1         0.000E+00

    TOTAL POWER DISSIPATION   0.00E+00  WATTS



          JOB CONCLUDED

**** 06/01/18 13:15:54 ******* PSpice Lite (March 2016) ******* ID# 10813 ****

 ** Profile: "SCHEMATIC1-lab7"  [ Z:\lab7-PSpiceFiles\SCHEMATIC1\lab7.sim ] 


 ****     JOB STATISTICS SUMMARY


******************************************************************************



  Total job time (using Solver 1)   =        3.09
